Version 4
SHEET 1 6628 1588
WIRE 1440 -384 1440 -416
WIRE 1440 -384 1136 -384
WIRE 1760 -384 1440 -384
WIRE 1136 -336 1136 -384
WIRE 1760 -288 1760 -384
WIRE -336 -240 -432 -240
WIRE -208 -240 -272 -240
WIRE 1440 -160 1440 -384
WIRE 64 -128 64 -176
WIRE -288 -112 -288 -160
WIRE -32 -112 -32 -160
WIRE 32 -112 -32 -112
WIRE 1136 -112 1136 -256
WIRE 1136 -112 1008 -112
WIRE 1376 -112 1136 -112
WIRE 1392 -112 1376 -112
WIRE -624 -96 -704 -96
WIRE -432 -96 -432 -240
WIRE -432 -96 -544 -96
WIRE -320 -96 -432 -96
WIRE 288 -96 96 -96
WIRE 320 -96 288 -96
WIRE 3744 -96 3744 -176
WIRE 3840 -96 3744 -96
WIRE -208 -80 -208 -240
WIRE -208 -80 -256 -80
WIRE -144 -80 -208 -80
WIRE -16 -80 -64 -80
WIRE 32 -80 -16 -80
WIRE -320 -64 -384 -64
WIRE -384 -32 -384 -64
WIRE 64 -32 64 -64
WIRE -288 -16 -288 -48
WIRE 3744 -16 3744 -96
WIRE 3840 -16 3840 -96
WIRE 1760 0 1760 -224
WIRE 4032 16 3920 16
WIRE 4256 16 4112 16
WIRE -16 32 -16 -80
WIRE 64 32 -16 32
WIRE 288 32 288 -96
WIRE 288 32 144 32
WIRE 1440 48 1440 -64
WIRE 1696 48 1440 48
WIRE -704 96 -704 -96
WIRE 288 96 288 32
WIRE 288 96 -704 96
WIRE 1136 96 1136 -112
WIRE 4000 160 4000 144
WIRE 3840 176 3840 64
WIRE 3920 176 3920 16
WIRE 3920 176 3840 176
WIRE 3968 176 3920 176
WIRE 4256 192 4256 16
WIRE 4256 192 4032 192
WIRE 4432 192 4256 192
WIRE 3568 208 3472 208
WIRE 3744 208 3744 64
WIRE 3744 208 3632 208
WIRE 3968 208 3744 208
WIRE 1136 224 1136 176
WIRE 1760 224 1760 96
WIRE 4000 240 4000 224
WIRE 4208 640 4208 592
WIRE 4016 688 4016 672
WIRE 3984 704 3904 704
WIRE 4208 720 4048 720
WIRE 4352 720 4208 720
WIRE 3728 736 3696 736
WIRE 3920 736 3808 736
WIRE 3984 736 3920 736
WIRE 4016 768 4016 752
WIRE 3920 880 3920 736
WIRE 4000 880 3920 880
WIRE 4208 880 4208 720
WIRE 4208 880 4080 880
FLAG 64 -32 0
FLAG -288 -16 0
FLAG -288 -160 5V
FLAG 64 -176 5V
FLAG -384 -32 2.5V
FLAG -32 -160 2.5V
FLAG 4000 240 0
FLAG 4000 144 5V
FLAG 3744 -176 2.5V
FLAG -848 -880 0
FLAG -848 -960 5V
FLAG -720 -880 0
FLAG -720 -960 2.5V
FLAG 1136 224 0
FLAG 1760 224 0
FLAG 320 -96 SqWv
FLAG 1440 -416 5V
FLAG 3472 208 0
FLAG 1008 -112 0
FLAG 3904 704 2.5V
FLAG 4016 768 0
FLAG 4016 672 5V
FLAG 4208 592 5V
SYMBOL OpAmps\\opamp2 -288 -144 R0
SYMATTR InstName U2
SYMATTR Value LM324
SYMBOL OpAmps\\opamp2 64 -160 R0
SYMATTR InstName U1
SYMATTR Value LM324
SYMBOL res -528 -112 R90
WINDOW 0 0 56 VBottom 2
WINDOW 3 32 56 VTop 2
SYMATTR InstName R1
SYMATTR Value 122k
SYMBOL res -48 -96 R90
WINDOW 0 0 56 VBottom 2
WINDOW 3 32 56 VTop 2
SYMATTR InstName R2
SYMATTR Value 4k
SYMBOL cap -272 -256 R90
WINDOW 0 0 32 VBottom 2
WINDOW 3 32 32 VTop 2
SYMATTR InstName C1
SYMATTR Value 341p
SYMBOL res 160 16 R90
WINDOW 0 0 56 VBottom 2
WINDOW 3 32 56 VTop 2
SYMATTR InstName R3
SYMATTR Value 10k
SYMBOL voltage -848 -976 R0
WINDOW 123 0 0 Left 0
WINDOW 39 0 0 Left 0
SYMATTR InstName V1
SYMATTR Value 5
SYMBOL OpAmps\\opamp2 4000 128 R0
SYMATTR InstName U3
SYMATTR Value LM324
SYMBOL res 3728 -32 R0
SYMATTR InstName R4
SYMATTR Value 1
SYMBOL res 3824 -32 R0
SYMATTR InstName R5
SYMATTR Value 1
SYMBOL res 4128 0 R90
WINDOW 0 0 56 VBottom 2
WINDOW 3 32 56 VTop 2
SYMATTR InstName R6
SYMATTR Value 1
SYMBOL cap 3632 192 R90
WINDOW 0 0 32 VBottom 2
WINDOW 3 32 32 VTop 2
SYMATTR InstName C2
SYMATTR Value 31p
SYMBOL voltage -720 -976 R0
WINDOW 123 0 0 Left 0
WINDOW 39 0 0 Left 0
SYMATTR InstName V2
SYMATTR Value 2.5
SYMBOL Contrib\\Toshiba\\bjt\\TDTC114Y 1376 -160 R0
SYMATTR InstName U4
SYMBOL Contrib\\Toshiba\\bjt\\TDTC114Y 1696 0 R0
SYMATTR InstName U5
SYMBOL res 1120 -352 R0
SYMATTR InstName R7
SYMATTR Value 1
SYMBOL res 1120 80 R0
SYMATTR InstName R8
SYMATTR Value 2
SYMBOL LED 1744 -288 R0
SYMATTR InstName D1
SYMBOL OpAmps\\opamp2 4016 656 R0
SYMATTR InstName U6
SYMATTR Value LM324
SYMBOL res 3824 720 R90
WINDOW 0 0 56 VBottom 2
WINDOW 3 32 56 VTop 2
SYMATTR InstName R9
SYMBOL res 4096 864 R90
WINDOW 0 0 56 VBottom 2
WINDOW 3 32 56 VTop 2
SYMATTR InstName R10
SYMBOL res 4224 736 R180
WINDOW 0 36 76 Left 2
WINDOW 3 36 40 Left 2
SYMATTR InstName R11
TEXT -880 -1168 Left 2 !.lib LM324.lib
TEXT -672 -336 Left 2 ;Square Waveform Generator
TEXT -984 -624 Left 4 ;Transmitter
TEXT 2968 -616 Left 4 ;Receiver
TEXT 1000 -496 Left 2 ;LED Driver
TEXT -880 -1192 Left 2 !.tran 0 10m 0 1u
TEXT 3376 -280 Left 2 ;Input Signal Conditioner
TEXT 3696 560 Left 2 ;Comparator Block
TEXT -752 456 Left 2 ;Supply Voltage Midpoint
LINE Normal 416 -384 -816 -384 2
LINE Normal 416 208 416 -384 2
LINE Normal -816 192 416 208 2
LINE Normal -816 -384 -816 192 2
RECTANGLE Normal 2608 1584 -1088 -704 2
RECTANGLE Normal 6624 1568 2864 -704 2
RECTANGLE Normal 1952 320 864 -544 2
RECTANGLE Normal 4576 320 3312 -336 2
RECTANGLE Normal 4432 960 3632 496 2
RECTANGLE Normal 608 1216 -816 400 2
